135398737
  -OEChem-11042210503D

 42 45  0     0  0  0  0  0  0999 V2000
    5.2439    2.8353    0.8560 Cl  0  0  0  0  0  0  0  0  0  0  0  0
   -1.6289    0.9168   -0.3205 N   0  0  0  0  0  0  0  0  0  0  0  0
   -4.3632    1.7023   -0.2284 N   0  0  0  0  0  0  0  0  0  0  0  0
    0.6262    1.0722   -0.2402 N   0  0  0  0  0  0  0  0  0  0  0  0
    1.7471   -1.6397   -0.8514 N   0  0  0  0  0  0  0  0  0  0  0  0
   -2.0088    2.1397    0.3812 C   0  0  0  0  0  0  0  0  0  0  0  0
   -2.5402    0.4969   -1.3813 C   0  0  0  0  0  0  0  0  0  0  0  0
   -3.4521    2.0346    0.8767 C   0  0  0  0  0  0  0  0  0  0  0  0
   -3.9719    0.4275   -0.8474 C   0  0  0  0  0  0  0  0  0  0  0  0
   -0.4311    0.3196   -0.1249 C   0  0  0  0  0  0  0  0  0  0  0  0
   -0.4505   -1.1426    0.1836 C   0  0  0  0  0  0  0  0  0  0  0  0
   -5.7450    1.6402    0.2462 C   0  0  0  0  0  0  0  0  0  0  0  0
    0.5217   -2.0295   -0.2914 C   0  0  0  0  0  0  0  0  0  0  0  0
    1.9691    0.7093   -0.1235 C   0  0  0  0  0  0  0  0  0  0  0  0
    2.5168   -0.5110   -0.5330 C   0  0  0  0  0  0  0  0  0  0  0  0
   -1.5654   -1.6459    0.8840 C   0  0  0  0  0  0  0  0  0  0  0  0
    0.3191   -3.4133   -0.0952 C   0  0  0  0  0  0  0  0  0  0  0  0
   -1.7357   -3.0154    1.0818 C   0  0  0  0  0  0  0  0  0  0  0  0
    2.8386    1.7381    0.2890 C   0  0  0  0  0  0  0  0  0  0  0  0
   -0.7981   -3.9034    0.5783 C   0  0  0  0  0  0  0  0  0  0  0  0
    3.9205   -0.6639   -0.5275 C   0  0  0  0  0  0  0  0  0  0  0  0
    4.2219    1.5681    0.3027 C   0  0  0  0  0  0  0  0  0  0  0  0
    4.7660    0.3641   -0.1150 C   0  0  0  0  0  0  0  0  0  0  0  0
   -1.3524    2.3157    1.2420 H   0  0  0  0  0  0  0  0  0  0  0  0
   -1.8966    2.9961   -0.2951 H   0  0  0  0  0  0  0  0  0  0  0  0
   -2.4806    1.2187   -2.2058 H   0  0  0  0  0  0  0  0  0  0  0  0
   -2.2601   -0.4770   -1.7993 H   0  0  0  0  0  0  0  0  0  0  0  0
   -3.5156    1.2788    1.6709 H   0  0  0  0  0  0  0  0  0  0  0  0
   -3.7354    2.9977    1.3182 H   0  0  0  0  0  0  0  0  0  0  0  0
   -4.6384    0.2065   -1.6901 H   0  0  0  0  0  0  0  0  0  0  0  0
   -4.0734   -0.3981   -0.1327 H   0  0  0  0  0  0  0  0  0  0  0  0
   -6.0495    2.6038    0.6695 H   0  0  0  0  0  0  0  0  0  0  0  0
   -5.8872    0.8674    1.0104 H   0  0  0  0  0  0  0  0  0  0  0  0
   -6.4279    1.4329   -0.5851 H   0  0  0  0  0  0  0  0  0  0  0  0
   -2.3168   -0.9795    1.2984 H   0  0  0  0  0  0  0  0  0  0  0  0
    2.2567   -2.3827   -1.3194 H   0  0  0  0  0  0  0  0  0  0  0  0
    1.0620   -4.1265   -0.4492 H   0  0  0  0  0  0  0  0  0  0  0  0
   -2.6021   -3.3834    1.6228 H   0  0  0  0  0  0  0  0  0  0  0  0
    2.4154    2.6960    0.5911 H   0  0  0  0  0  0  0  0  0  0  0  0
   -0.9221   -4.9720    0.7238 H   0  0  0  0  0  0  0  0  0  0  0  0
    4.3651   -1.6113   -0.8281 H   0  0  0  0  0  0  0  0  0  0  0  0
    5.8404    0.2022   -0.1130 H   0  0  0  0  0  0  0  0  0  0  0  0
  1 22  1  0  0  0  0
  2  6  1  0  0  0  0
  2  7  1  0  0  0  0
  2 10  1  0  0  0  0
  3  8  1  0  0  0  0
  3  9  1  0  0  0  0
  3 12  1  0  0  0  0
  4 10  2  0  0  0  0
  4 14  1  0  0  0  0
  5 13  1  0  0  0  0
  5 15  1  0  0  0  0
  5 36  1  0  0  0  0
  6  8  1  0  0  0  0
  6 24  1  0  0  0  0
  6 25  1  0  0  0  0
  7  9  1  0  0  0  0
  7 26  1  0  0  0  0
  7 27  1  0  0  0  0
  8 28  1  0  0  0  0
  8 29  1  0  0  0  0
  9 30  1  0  0  0  0
  9 31  1  0  0  0  0
 10 11  1  0  0  0  0
 11 13  1  0  0  0  0
 11 16  2  0  0  0  0
 12 32  1  0  0  0  0
 12 33  1  0  0  0  0
 12 34  1  0  0  0  0
 13 17  2  0  0  0  0
 14 15  2  0  0  0  0
 14 19  1  0  0  0  0
 15 21  1  0  0  0  0
 16 18  1  0  0  0  0
 16 35  1  0  0  0  0
 17 20  1  0  0  0  0
 17 37  1  0  0  0  0
 18 20  2  0  0  0  0
 18 38  1  0  0  0  0
 19 22  2  0  0  0  0
 19 39  1  0  0  0  0
 20 40  1  0  0  0  0
 21 23  2  0  0  0  0
 21 41  1  0  0  0  0
 22 23  1  0  0  0  0
 23 42  1  0  0  0  0
M  END
> <PUBCHEM_COMPOUND_CID>
135398737

> <PUBCHEM_CONFORMER_RMSD>
0.6

> <PUBCHEM_CONFORMER_DIVERSEORDER>
3
2
1
4

> <PUBCHEM_MMFF94_PARTIAL_CHARGES>
31
1 -0.18
10 0.41
11 0.09
12 0.27
13 0.1
14 0.18
15 0.1
16 -0.15
17 -0.15
18 -0.15
19 -0.15
2 -0.79
20 -0.15
21 -0.15
22 0.18
23 -0.15
3 -0.81
35 0.15
36 0.4
37 0.15
38 0.15
39 0.15
4 -0.63
40 0.15
41 0.15
42 0.15
5 -0.6
6 0.37
7 0.37
8 0.27
9 0.27

> <PUBCHEM_EFFECTIVE_ROTOR_COUNT>
2.4

> <PUBCHEM_PHARMACOPHORE_FEATURES>
8
1 3 cation
1 5 cation
1 5 donor
3 2 4 10 cation
6 11 13 16 17 18 20 rings
6 14 15 19 21 22 23 rings
6 2 3 6 7 8 9 rings
7 4 5 10 11 13 14 15 rings

> <PUBCHEM_HEAVY_ATOM_COUNT>
23

> <PUBCHEM_ATOM_DEF_STEREO_COUNT>
0

> <PUBCHEM_ATOM_UDEF_STEREO_COUNT>
0

> <PUBCHEM_BOND_DEF_STEREO_COUNT>
0

> <PUBCHEM_BOND_UDEF_STEREO_COUNT>
0

> <PUBCHEM_ISOTOPIC_ATOM_COUNT>
0

> <PUBCHEM_COMPONENT_COUNT>
1

> <PUBCHEM_CACTVS_TAUTO_COUNT>
-1

> <PUBCHEM_CONFORMER_ID>
0812055100000003

> <PUBCHEM_MMFF94_ENERGY>
98.755

> <PUBCHEM_FEATURE_SELFOVERLAP>
40.615

> <PUBCHEM_SHAPE_FINGERPRINT>
10319926 262 18268414911095247256
10411042 1 17329709237539559494
1100329 8 18191583052158545074
11370993 70 18410294692118509697
11578080 2 16627978810084294147
12035758 1 18191875732793978467
12236239 1 17917428667046987237
12403259 118 17975683207122262080
12553582 1 16896238310418206759
12633257 1 18335409146232808480
12643181 29 18409170988174643710
12730499 353 18264217924307577179
12788726 201 18049705614604486571
13140716 1 18408323255127936466
13540713 4 18199199550056213406
138480 1 17545320774337422563
14178342 30 18190172572339859168
14787075 74 18272929423580433889
14790565 3 18411423869249682897
15420108 30 15972182341618724256
15664445 248 17336755518083131567
16728300 4 16955322904288416634
20510252 161 18268996551622610162
20642791 13 18194116545553929350
21033648 144 18335689586027929812
21033648 29 17915731175802208112
21049683 118 18264464308789804129
21521721 280 18341899597784231705
22182313 1 18267325251062352398
22224240 67 18408042914655490737
23419403 2 17056111084704445755
23557571 272 18194694876233253910
23558518 356 17755017832722521032
23559900 14 18412545419144951630
23845131 108 18262243214509830587
2748010 2 18337691770605180142
3091708 16 9195220660928884595
335352 9 18411140195908405070
3380486 145 17258213498074550491
352729 6 18410865381713761614
4340502 62 18336554828780147673
4409770 3 18120645001048203751
474 4 18340768148146704329
5104073 3 18407758140267944154
59755656 520 18334573538179477630
6138700 20 18051979121916128414
621550 34 18115868491125733005
633830 44 18272365322095664781
81228 2 17898011484324904627
84936 182 18126001568237343616
9709674 26 18342178916444513118
9981440 41 18339633533761820210

> <PUBCHEM_SHAPE_MULTIPOLES>
455.27
9.7
4.1
0.98
2.04
3.53
0.02
-10.27
-0.61
-1.19
-1.24
-0.33
0.07
1.16

> <PUBCHEM_SHAPE_SELFOVERLAP>
984.278

> <PUBCHEM_SHAPE_VOLUME>
248.2

> <PUBCHEM_COORDINATE_TYPE>
2
5
10

$$$$
