3559
  -OEChem-11042211153D

 49 51  0     0  0  0  0  0  0999 V2000
    9.1803   -0.0588    0.2206 Cl  0  0  0  0  0  0  0  0  0  0  0  0
   -8.7674    1.3659    0.4286 F   0  0  0  0  0  0  0  0  0  0  0  0
    2.9355    1.3073   -1.2919 O   0  0  0  0  0  0  0  0  0  0  0  0
   -3.1855   -0.6296   -1.6256 O   0  0  0  0  0  0  0  0  0  0  0  0
    0.4668   -0.3825    0.7324 N   0  0  0  0  0  0  0  0  0  0  0  0
    3.1737    0.3608   -0.2394 C   0  0  0  0  0  0  0  0  0  0  0  0
    2.4552   -0.9541   -0.6160 C   0  0  0  0  0  0  0  0  0  0  0  0
    2.5665    0.8940    1.0788 C   0  0  0  0  0  0  0  0  0  0  0  0
    0.9271   -0.8337   -0.5852 C   0  0  0  0  0  0  0  0  0  0  0  0
    1.0327    0.9277    1.0694 C   0  0  0  0  0  0  0  0  0  0  0  0
   -0.9945   -0.3371    0.7774 C   0  0  0  0  0  0  0  0  0  0  0  0
    4.6953    0.2547   -0.1243 C   0  0  0  0  0  0  0  0  0  0  0  0
   -1.5758   -1.7227    0.4890 C   0  0  0  0  0  0  0  0  0  0  0  0
    5.3272   -0.9664   -0.3544 C   0  0  0  0  0  0  0  0  0  0  0  0
    5.4476    1.3792    0.2118 C   0  0  0  0  0  0  0  0  0  0  0  0
   -3.1067   -1.7286    0.5216 C   0  0  0  0  0  0  0  0  0  0  0  0
    6.7146   -1.0632   -0.2481 C   0  0  0  0  0  0  0  0  0  0  0  0
    6.8351    1.2823    0.3180 C   0  0  0  0  0  0  0  0  0  0  0  0
   -3.7373   -0.8510   -0.5505 C   0  0  0  0  0  0  0  0  0  0  0  0
    7.4685    0.0611    0.0882 C   0  0  0  0  0  0  0  0  0  0  0  0
   -5.0807   -0.2595   -0.2898 C   0  0  0  0  0  0  0  0  0  0  0  0
   -5.9585   -0.9445    0.5204 C   0  0  0  0  0  0  0  0  0  0  0  0
   -5.3937    0.9506   -0.8678 C   0  0  0  0  0  0  0  0  0  0  0  0
   -7.2149   -0.3905    0.7654 C   0  0  0  0  0  0  0  0  0  0  0  0
   -6.6502    1.5046   -0.6226 C   0  0  0  0  0  0  0  0  0  0  0  0
   -7.5608    0.8341    0.1939 C   0  0  0  0  0  0  0  0  0  0  0  0
    2.7352   -1.7553    0.0812 H   0  0  0  0  0  0  0  0  0  0  0  0
    2.7465   -1.2700   -1.6263 H   0  0  0  0  0  0  0  0  0  0  0  0
    2.9094    1.9158    1.2819 H   0  0  0  0  0  0  0  0  0  0  0  0
    2.9015    0.2697    1.9186 H   0  0  0  0  0  0  0  0  0  0  0  0
    0.5799   -1.8422   -0.8221 H   0  0  0  0  0  0  0  0  0  0  0  0
    0.5750   -0.1698   -1.3844 H   0  0  0  0  0  0  0  0  0  0  0  0
    0.6988    1.2257    2.0712 H   0  0  0  0  0  0  0  0  0  0  0  0
    0.6789    1.7007    0.3751 H   0  0  0  0  0  0  0  0  0  0  0  0
   -1.3218   -0.0251    1.7771 H   0  0  0  0  0  0  0  0  0  0  0  0
   -1.3792    0.4030    0.0653 H   0  0  0  0  0  0  0  0  0  0  0  0
   -1.2024   -2.4451    1.2255 H   0  0  0  0  0  0  0  0  0  0  0  0
   -1.3034   -2.0950   -0.5019 H   0  0  0  0  0  0  0  0  0  0  0  0
    1.9840    1.4897   -1.3469 H   0  0  0  0  0  0  0  0  0  0  0  0
    4.7909   -1.8683   -0.6268 H   0  0  0  0  0  0  0  0  0  0  0  0
    4.9772    2.3433    0.3830 H   0  0  0  0  0  0  0  0  0  0  0  0
   -3.4315   -1.3923    1.5127 H   0  0  0  0  0  0  0  0  0  0  0  0
   -3.4672   -2.7523    0.3692 H   0  0  0  0  0  0  0  0  0  0  0  0
    7.1956   -2.0207   -0.4315 H   0  0  0  0  0  0  0  0  0  0  0  0
    7.4102    2.1673    0.5782 H   0  0  0  0  0  0  0  0  0  0  0  0
   -5.7205   -1.9060    0.9635 H   0  0  0  0  0  0  0  0  0  0  0  0
   -4.6925    1.4858   -1.5007 H   0  0  0  0  0  0  0  0  0  0  0  0
   -7.9259   -0.9138    1.3979 H   0  0  0  0  0  0  0  0  0  0  0  0
   -6.9195    2.4585   -1.0664 H   0  0  0  0  0  0  0  0  0  0  0  0
  1 20  1  0  0  0  0
  2 26  1  0  0  0  0
  3  6  1  0  0  0  0
  3 39  1  0  0  0  0
  4 19  2  0  0  0  0
  5  9  1  0  0  0  0
  5 10  1  0  0  0  0
  5 11  1  0  0  0  0
  6  7  1  0  0  0  0
  6  8  1  0  0  0  0
  6 12  1  0  0  0  0
  7  9  1  0  0  0  0
  7 27  1  0  0  0  0
  7 28  1  0  0  0  0
  8 10  1  0  0  0  0
  8 29  1  0  0  0  0
  8 30  1  0  0  0  0
  9 31  1  0  0  0  0
  9 32  1  0  0  0  0
 10 33  1  0  0  0  0
 10 34  1  0  0  0  0
 11 13  1  0  0  0  0
 11 35  1  0  0  0  0
 11 36  1  0  0  0  0
 12 14  2  0  0  0  0
 12 15  1  0  0  0  0
 13 16  1  0  0  0  0
 13 37  1  0  0  0  0
 13 38  1  0  0  0  0
 14 17  1  0  0  0  0
 14 40  1  0  0  0  0
 15 18  2  0  0  0  0
 15 41  1  0  0  0  0
 16 19  1  0  0  0  0
 16 42  1  0  0  0  0
 16 43  1  0  0  0  0
 17 20  2  0  0  0  0
 17 44  1  0  0  0  0
 18 20  1  0  0  0  0
 18 45  1  0  0  0  0
 19 21  1  0  0  0  0
 21 22  2  0  0  0  0
 21 23  1  0  0  0  0
 22 24  1  0  0  0  0
 22 46  1  0  0  0  0
 23 25  2  0  0  0  0
 23 47  1  0  0  0  0
 24 26  2  0  0  0  0
 24 48  1  0  0  0  0
 25 26  1  0  0  0  0
 25 49  1  0  0  0  0
M  END
> <PUBCHEM_COMPOUND_CID>
3559

> <PUBCHEM_CONFORMER_RMSD>
0.8

> <PUBCHEM_CONFORMER_DIVERSEORDER>
1
443
437
168
99
236
408
450
409
169
51
386
2
227
394
204
199
310
279
370
327
326
112
73
369
392
403
200
57
293
182
438
15
97
81
231
387
416
259
224
245
215
250
78
61
319
75
229
359
213
400
209
424
6
206
43
122
334
448
33
47
295
178
273
230
291
98
141
451
323
107
473
110
248
208
114
371
434
217
401
341
405
297
120
308
256
3
276
313
404
109
8
457
477
72
421
471
284
299
162
222
74
79
104
487
466
63
221
459
292
244
119
436
216
86
255
472
155
116
50
311
283
335
294
133
358
195
482
131
439
77
118
68
378
44
329
249
12
290
480
121
212
102
447
253
270
87
474
49
318
95
445
396
422
268
322
414
306
425
272
444
374
373
58
338
108
483
381
25
60
235
175
214
30
260
10
475
430
336
288
80
296
242
357
410
65
103
17
263
280
391
285
289
305
383
219
129
11
138
269
172
101
360
390
262
211
382
258
376
234
225
92
332
243
274
7
412
56
302
456
435
355
55
343
346
307
142
317
300
181
146
190
372
191
282
139
106
193
125
402
399
16
375
349
76
171
85
316
485
287
148
156
240
210
406
418
304
32
40
423
442
154
105
460
94
247
66
454
166
463
486
325
170
254
461
361
207
395
413
31
339
388
96
163
467
365
164
261
264
117
301
201
115
144
20
239
312
356
347
367
128
397
197
89
39
14
137
351
238
111
465
278
62
275
27
151
368
330
45
5
389
205
363
186
83
468
9
440
352
152
303
177
320
426
173
393
331
187
362
127
257
277
167
22
223
377
267
18
64
194
4
180
48
82
478
143
470
159
353
59
420
398
427
198
417
42
46
29
88
13
469
158
34
52
476
481
26
93
380
233
286
140
446
309
145
153
455
484
38
23
441
453
192
157
100
69
71
37
428
407
385
479
411
183
35
174
337
126
160
433
298
113
147
462
271
419
340
123
176
161
28
84
91
185
314
228
19
226
246
344
132
124
149
24
252
232
130
165
179
196
464
348
67
449
251
189
342
237
36
452
345
90
188
384
202
41
366
379
54
220
241
184
333
281
203
324
364
21
135
415
265
136
321
53
431
315
218
134
150
328
70
350
266
432
458
429
354

> <PUBCHEM_MMFF94_PARTIAL_CHARGES>
32
1 -0.18
10 0.27
11 0.27
12 -0.14
14 -0.15
15 -0.15
16 0.06
17 -0.15
18 -0.15
19 0.42
2 -0.19
20 0.18
21 0.09
22 -0.15
23 -0.15
24 -0.15
25 -0.15
26 0.19
3 -0.68
39 0.4
4 -0.57
40 0.15
41 0.15
44 0.15
45 0.15
46 0.15
47 0.15
48 0.15
49 0.15
5 -0.81
6 0.42
9 0.27

> <PUBCHEM_EFFECTIVE_ROTOR_COUNT>
7.2

> <PUBCHEM_PHARMACOPHORE_FEATURES>
7
1 3 acceptor
1 3 donor
1 4 acceptor
1 5 cation
6 12 14 15 17 18 20 rings
6 21 22 23 24 25 26 rings
6 5 6 7 8 9 10 rings

> <PUBCHEM_HEAVY_ATOM_COUNT>
26

> <PUBCHEM_ATOM_DEF_STEREO_COUNT>
0

> <PUBCHEM_ATOM_UDEF_STEREO_COUNT>
0

> <PUBCHEM_BOND_DEF_STEREO_COUNT>
0

> <PUBCHEM_BOND_UDEF_STEREO_COUNT>
0

> <PUBCHEM_ISOTOPIC_ATOM_COUNT>
0

> <PUBCHEM_COMPONENT_COUNT>
1

> <PUBCHEM_CACTVS_TAUTO_COUNT>
2

> <PUBCHEM_CONFORMER_ID>
00000DE700000001

> <PUBCHEM_MMFF94_ENERGY>
63.1694

> <PUBCHEM_FEATURE_SELFOVERLAP>
35.522

> <PUBCHEM_SHAPE_FINGERPRINT>
10 15 17385721371220542769
10165383 225 18335419055044158971
10299344 5 12973604443315717258
10391435 84 11167645582555973613
106641 1 10953744408565733942
10670039 82 18335977589513217797
10674148 151 17749105609045637904
10730089 173 18334575733593710753
11135609 99 9943223962371904585
11135926 11 16630535037438499759
11315181 36 8574715711396659503
11646440 116 16153427250836752156
11719270 70 17704354355855356606
11724838 91 9151172056804934242
11796584 16 18408886274260069370
12166972 35 13551193298749729190
12516196 113 11312058746709548971
12664476 115 18411134724257628817
12838862 33 16774069653388966614
13914758 101 18408603643699025656
14150022 121 13046211755246876479
14251752 14 18413387622727762995
14251764 18 13623529060839541250
14251764 46 18186238437825381755
1454969 45 12319735886536998706
14675020 138 18335686257934658570
14849402 71 14924240368685247038
14856354 85 14779551205606782651
14933364 13 18333169470742423945
15119646 104 16630253506305447743
15142383 8 18342458149532587020
15183329 4 17203890756320393931
15716309 27 11458423544439627627
15728490 51 11746944195961795409
1577012 14 17967803943298159691
18335252 98 8502658112815759920
18608769 82 18336549404458246027
19611394 137 17459488813271738003
19841028 212 18262234418792030578
20238998 120 18272370884680446944
20281389 69 18186518808679005789
21033648 29 18339068415276857392
21095086 128 8142089762881835848
21150785 3 14045742625211411851
21267235 1 11819270054026159530
21298829 104 16415491428217852451
21315759 40 14345794954579887027
21365058 27 15719110258165978155
21585482 111 18191867817866460589
21756936 100 18260263067277932315
21792934 111 17847053390719614144
22224240 67 13686296877430162492
23559900 14 17346025796594627563
246663 6 12324240559753322618
28498 318 18272091583119879798
3009799 131 17918274264154596330
3633792 109 18272655641290901634
4073 2 18041001803560746170
4098825 35 18410292536292963851
4325135 7 14620797102675672648
4339292 15 17417240070612286407
5385378 56 17531241721481115050
5758199 1 16442782423178356145
59682541 35 12396306962895970117
5969126 39 15410899535197331713
59755656 520 17676203598388548291
6009941 240 18334577975218785402
6081469 158 18343868789139853214
9953998 17 17603590725703927505

> <PUBCHEM_SHAPE_MULTIPOLES>
512.94
27.8
1.55
1.03
3.06
0.01
0.09
6.74
-0.77
0.77
-0.02
0.48
0.06
0.8

> <PUBCHEM_SHAPE_SELFOVERLAP>
1081.103

> <PUBCHEM_SHAPE_VOLUME>
289.9

> <PUBCHEM_COORDINATE_TYPE>
2
5
10

$$$$
